cases/Fault_Cases/case3012wp_out.txt
ANDES 1.9.3
Copyright (C) 2015-2022 Hantao Cui

ANDES comes with ABSOLUTELY NO WARRANTY
Case file: case3012wp.xlsx
Report time: 09/11/2026 09:26:59 AM

Power flow converged in 3 iterations.
Flat-start: No

Statistics:
Buses                           3012
Generators                       502
Committed Gens                   385
Loads                           2271
Shunts                             9
Lines                           3572
Transformers                     201
Areas                              0

EXTENDED SUMMARY:
                              P (pu)            Q (pu)

Generation                    277.87            84.075
Load                           271.7            102.01

BUS DATA:
                            Bus Name            Vm(pu)          Va(rad.)

1                              Bus 1            1.1068        -0.0060291
2                              Bus 2            1.1079           0.01349
3                              Bus 3            1.0659          -0.55668
4                              Bus 4            1.0659          -0.55683
5                              Bus 5             1.077          -0.59598
6                              Bus 6            1.0752          -0.11516
7                              Bus 7            1.0751          -0.11516
8                              Bus 8            1.0903          -0.33818
9                              Bus 9            1.0905          -0.33789
10                            Bus 10            1.1099          -0.39811
11                            Bus 11            1.0252          -0.24719
12                            Bus 12            1.0253          -0.24704
13                            Bus 13            1.0115          -0.32472
14                            Bus 14            1.0427          -0.33487
15                            Bus 15            1.0429          -0.33481
16                            Bus 16             1.043          -0.33464
17                            Bus 17            1.0312          -0.41268
18                            Bus 18            1.0309          -0.40611
19                            Bus 19            1.0264          -0.21765
20                            Bus 20            1.0265          -0.21747
21                            Bus 21            1.0219          -0.38943
22                            Bus 22            1.0155          -0.32006
23                            Bus 23            1.0155          -0.32006
24                            Bus 24            1.0867          -0.45864
25                            Bus 25            1.0867          -0.45863
26                            Bus 26            1.0847         -0.097679
27                            Bus 27            1.0848         -0.097906
28                            Bus 28            1.0399          -0.37096
29                            Bus 29            1.0398          -0.37092
30                            Bus 30            1.0423          -0.32629
31                            Bus 31            1.0422          -0.32652
32                            Bus 32            1.0844         -0.056705
33                            Bus 33            1.0843         -0.057119
34                            Bus 34             1.017          -0.28466
35                            Bus 35             1.017          -0.28475
36                            Bus 36            1.0067          -0.34109
37                            Bus 37              1.11        1.3013e-16
38                            Bus 38              1.11          0.018609
39                            Bus 39              1.11          0.018483
40                            Bus 40            1.0475        -0.0089533
41                            Bus 41            1.0475         -0.008846
42                            Bus 42            1.0317          -0.35781
43                            Bus 43            1.0316          -0.35787
44                            Bus 44            1.0499         -0.038319
45                            Bus 45            1.0499         -0.038381
46                            Bus 46            1.0393          -0.34104
47                            Bus 47            1.0599          -0.15725
48                            Bus 48            1.0599          -0.15756
49                            Bus 49            1.0929          -0.22954
50                            Bus 50            1.0911          -0.22235
51                            Bus 51            1.1036          -0.19372
52                            Bus 52            1.1036          -0.19379
53                            Bus 53            1.0722          -0.26442
54                            Bus 54            1.0994          -0.17105
55                            Bus 55            1.0995          -0.17104
56                            Bus 56             1.036           -0.1741
57                            Bus 57            1.1017          -0.19609
58                            Bus 58            1.1017           -0.1961
59                            Bus 59            1.1017          -0.19611
60                            Bus 60              1.05           -0.1635
61                            Bus 61              1.05          -0.16338
62                            Bus 62             1.094          -0.18394
63                            Bus 63            1.0448          -0.24261
64                            Bus 64            1.0448          -0.24263
65                            Bus 65            1.0478          -0.19057
66                            Bus 66            1.0784           -0.2343
67                            Bus 67            1.0783          -0.23421
68                            Bus 68            1.0457          -0.18475
69                            Bus 69            1.0457          -0.18479
70                            Bus 70            1.1084          -0.17169
71                            Bus 71            1.1084          -0.17172
72                            Bus 72            1.0433          -0.17809
73                            Bus 73            1.0433          -0.17812
74                            Bus 74            1.0986          -0.21278
75                            Bus 75            1.0986          -0.21281
76                            Bus 76            1.0965          -0.18703
77                            Bus 77            1.0965          -0.18696
78                            Bus 78            1.0974          -0.21188
79                            Bus 79            1.0974          -0.21194
80                            Bus 80              1.05          -0.20118
81                            Bus 81            1.0499          -0.20138
82                            Bus 82               1.1          -0.21328
83                            Bus 83            1.1006          -0.21105
84                            Bus 84            1.0798          -0.21372
85                            Bus 85            1.0932         -0.075594
86                            Bus 86            1.0945          -0.15975
87                            Bus 87            1.0946          -0.15975
88                            Bus 88            1.0996         -0.051601
89                            Bus 89            1.0997         -0.051377
90                            Bus 90            1.1094         -0.044367
91                            Bus 91            1.1094         -0.044407
92                            Bus 92            1.0746         -0.075646
93                            Bus 93            1.0744         -0.075765
94                            Bus 94            1.1088         -0.036848
95                            Bus 95              1.11          -0.02857
96                            Bus 96            1.0959         -0.054025
97                            Bus 97            1.0958         -0.054043
98                            Bus 98              1.05         -0.082121
99                            Bus 99            1.0499         -0.082599
100                          Bus 100            1.0599           -0.1101
101                          Bus 101            1.1085         -0.035733
102                          Bus 102            1.1085         -0.035685
103                          Bus 103            1.0961         -0.071648
104                          Bus 104            1.0961         -0.071731
105                          Bus 105            1.1042         -0.033066
106                          Bus 106            1.1041         -0.033105
107                          Bus 107            1.1003         -0.064216
108                          Bus 108            1.1003         -0.064337
109                          Bus 109            1.0433         -0.039595
110                          Bus 110            1.0433         -0.039623
111                          Bus 111            1.1068         -0.030409
112                          Bus 112            1.1069         -0.030386
113                          Bus 113             1.081         -0.064713
114                          Bus 114            1.0809         -0.064941
115                          Bus 115            1.1009         -0.054789
116                          Bus 116            1.1008         -0.055001
117                          Bus 117            1.0946          -0.15941
118                          Bus 118            1.0946          -0.15936
119                          Bus 119            1.0607         -0.081522
120                          Bus 120            1.0606         -0.081547
121                          Bus 121              1.11         -0.030737
122                          Bus 122              1.11         -0.030704
123                          Bus 123              1.11         -0.031682
124                          Bus 124              1.11         -0.031483
125                          Bus 125            1.0961         -0.078859
126                          Bus 126            1.0961         -0.079004
127                          Bus 127             1.079         -0.086354
128                          Bus 128            1.0891         -0.046215
129                          Bus 129            1.0892         -0.046252
130                          Bus 130            1.0944         -0.055186
131                          Bus 131            1.0945         -0.055041
132                          Bus 132            1.0414         -0.096909
133                          Bus 133            1.0414         -0.096909
134                          Bus 134            1.1076         -0.046936
135                          Bus 135            1.1076         -0.046979
136                          Bus 136            1.0927         -0.073597
137                          Bus 137            1.0927         -0.073798
138                          Bus 138            1.0477          -0.19825
139                          Bus 139            1.0477          -0.19829
140                          Bus 140            1.0499          -0.10625
141                          Bus 141            1.0499          -0.10622
142                          Bus 142            1.0765         -0.090924
143                          Bus 143            1.0765         -0.090881
144                          Bus 144            1.1099         -0.023785
145                          Bus 145              1.11          -0.02338
146                          Bus 146            1.0397         -0.080292
147                          Bus 147            1.0397         -0.080281
148                          Bus 148            1.0948          -0.07334
149                          Bus 149            1.0949          -0.07322
150                          Bus 150            1.1097          -0.03177
151                          Bus 151            1.0983         -0.066656
152                          Bus 152            1.0747          -0.07565
153                          Bus 153            1.0744         -0.075769
154                          Bus 154            1.0886          -0.22907
155                          Bus 155            1.0886          -0.22928
156                          Bus 156            1.0635          -0.25841
157                          Bus 157            1.0634          -0.25843
158                          Bus 158            1.0549          -0.28894
159                          Bus 159            1.0809          -0.22859
160                          Bus 160            1.0808          -0.22875
161                          Bus 161            1.0222          -0.22116
162                          Bus 162            1.0222           -0.2212
163                          Bus 163            1.0259          -0.50175
164                          Bus 164             1.077           -0.6244
165                          Bus 165             1.077           -0.6244
166                          Bus 166            1.0716          -0.54591
167                          Bus 167            1.0716          -0.54591
168                          Bus 168            1.0542          -0.29307
169                          Bus 169             1.081          -0.32189
170                          Bus 170            1.0809          -0.32215
171                          Bus 171              1.11          -0.26623
172                          Bus 172            1.1041          -0.58742
173                          Bus 173            1.1041          -0.58743
174                          Bus 174            1.0361          -0.53791
175                          Bus 175            1.0361          -0.53785
176                          Bus 176           0.99462          -0.48305
177                          Bus 177           0.99473           -0.4832
178                          Bus 178            1.0482          -0.40223
179                          Bus 179            1.0483          -0.40231
180                          Bus 180              1.11          -0.16286
181                          Bus 181              1.11            -0.163
182                          Bus 182              1.11          -0.16261
183                          Bus 183            1.0494          -0.15144
184                          Bus 184            1.0494          -0.15146
185                          Bus 185            1.0807            -0.625
186                          Bus 186            1.0807            -0.625
187                          Bus 187            1.0079          -0.23931
188                          Bus 188           0.97882          -0.34106
189                          Bus 189            1.0203          -0.20461
190                          Bus 190            1.0203          -0.20447
191                          Bus 191             1.083          -0.32464
192                          Bus 192            1.0827          -0.32537
193                          Bus 193            1.0324          -0.20971
194                          Bus 194             1.014          -0.61724
195                          Bus 195            1.0141          -0.61732
196                          Bus 196            1.0765          -0.62587
197                          Bus 197            1.0765          -0.62589
198                          Bus 198            1.0204           -0.5224
199                          Bus 199            1.0203          -0.52225
200                          Bus 200           0.98019          -0.55175
...

LINE DATA:
                           Line Name     Fr. Bus (idx)      To Bus (idx)       P From (pu)       Q From (pu)         P To (pu)         Q To (pu)

Line_1                     Line 9-11                 9                11           -3.0326          -0.96278            3.0392            1.2782
Line_2                    Line 13-12                13                12           -2.0441          -0.23615            2.0469           0.39941
Line_3                    Line 21-19                21                19           -3.1372           0.24034            3.1455           0.30075
Line_4                    Line 36-35                36                35           -1.5826           -0.2054            1.5844           0.29716
Line_5                    Line 37-40                37                40           0.38152          -0.36444          -0.38143           0.37094
Line_6                    Line 38-41                38                41            1.1509           -1.0559           -1.1501            1.1148
Line_7                    Line 55-56                55                56           0.14364          -0.66894          -0.14348           0.67834
Line_8                    Line 59-61                59                61           -1.7111          -0.45014             1.712           0.51086
Line_9                    Line 70-72                70                72           0.20463            -0.825          -0.20407           0.84587
Line_10                 Line 107-109               107               109            -1.097          -0.36478            1.0979           0.40442
Line_11                 Line 108-110               108               110            -1.057           -0.5853            1.0575           0.62024
Line_12                 Line 144-147               144               147            2.0988          -0.29893           -2.0966           0.43788
Line_13                 Line 173-174               173               174           -1.7441           0.20837             1.746          -0.12135
Line_14                 Line 182-183               182               183           -0.5337          -0.71638           0.53387           0.73358
Line_15                 Line 181-184               181               184          -0.55106          -0.71456           0.55124            0.7321
Line_16                 Line 188-187               188               187           -2.2855          -0.51308            2.2874           0.76456
Line_17                 Line 191-193               191               193           -4.2516           -1.6994            4.2582            2.2997
Line_18                 Line 198-200               198               200            1.1345           -1.1753           -1.1335            1.2454
Line_19                 Line 212-213               212               213          -0.72735          -0.95143           0.72808           0.99044
Line_20                 Line 217-215               217               215           -1.4143           0.17951            1.4159         -0.048026
Line_21                 Line 220-222               220               222              -1.7           -1.1774            1.7015            1.3004
Line_22                 Line 224-222               224               222           -2.2166           0.64804            2.2182          -0.41437
Line_23                 Line 231-229               231               229           -1.1049           0.48118            1.1064          -0.40679
Line_24                 Line 228-230               228               230          -0.17889          -0.51529           0.17911           0.53087
Line_25                Line 3010-183              3010               183        -0.0048604           0.14856         0.0048708          -0.24964
Line_26                Line 3010-184              3010               184         0.0048604           0.15069        -0.0048491          -0.25564
Line_27                  Line 244-84               244                84               2.2           0.10137           -2.1417          0.082256
Line_28                 Line 3007-92              3007                92          -0.79065           0.31314           0.79875          -0.40599
Line_29                Line 3007-122              3007               122           -1.6723         -0.031398            1.7007          0.055168
Line_30                Line 146-3008               146              3008            6.0953          -0.15674           -6.0375           0.15568
Line_31                Line 3011-172              3011               172       -0.00044737           0.37207        0.00068333          -0.42927
Line_32                Line 3011-173              3011               173        0.00044737             0.376       -0.00020677          -0.43316
Line_33                 Line 3012-63              3012                63            -2.948          -0.66494            2.9665            0.1048
Line_34                 Line 3012-64              3012                64           -2.9471            -0.665            2.9655           0.10475
Line_35                 Line 99-3006                99              3006            3.5877          -0.53109           -3.5535          -0.16004
Line_36                   Line 58-30                58                30            2.2421           0.61965           -2.1888          -0.44703
Line_37                  Line 37-107                37               107            1.1899          -0.02901           -1.1794         -0.022563
Line_38                  Line 38-108                38               108            1.7559         -0.051166           -1.7354          0.075549
Line_39                  Line 169-42               169                42           0.37351           0.26779          -0.36936          -0.45584
Line_40                  Line 155-48               155                48            -1.089           0.65604            1.1076          -0.67808
Line_41                  Line 154-27               154                27           -3.0307           0.92603            3.1222          -0.63131
Line_42                  Line 191-28               191                28           0.53615           0.28015          -0.53091          -0.42227
Line_43                  Line 55-126                55               126           -1.2945           0.27446            1.3166          -0.29169
Line_44                  Line 54-108                54               108           -1.7418           0.29048             1.771          -0.22849
Line_45                 Line 207-100               207               100           -2.0495           0.12734            2.0706         -0.091343
Line_46                 Line 238-192               238               192           -2.5773          -0.21854            2.6473           0.51091
Line_47                 Line 226-191               226               191           -1.8653          0.048857            1.9185          0.084657
Line_48                 Line 225-192               225               192           -1.9134        -0.0050133            1.9593              0.14
Line_49                 Line 242-195               242               195           0.42268           0.44415          -0.41662          -0.56169
Line_50                   Line 59-16                59                16             2.282           0.53376             -2.22          -0.35148
Line_51                  Line 233-25               233                25           -1.0302           -0.2451             1.044           0.16455
Line_52                  Line 117-70               117                70           0.30859          -0.42938          -0.30787           0.31534
Line_53                  Line 190-99               190                99           -6.5348          -0.75776            6.6148            1.0033
Line_54                   Line 60-12                60                12            6.1004            1.1395           -6.0473             -1.04
Line_55                 Line 214-174               214               174          -0.25538           -0.5933           0.25559          -0.39833
Line_56                  Line 138-72               138                72           -1.1106          0.052521            1.1127          -0.61688
Line_57                  Line 41-110                41               110            2.1539          -0.11867           -2.1481          -0.29283
Line_58                  Line 40-141                40               141            3.9679          -0.65548           -3.9342           0.22009
Line_59                  Line 34-222                34               222            6.5285          0.072702           -6.4387           0.28091
Line_60                  Line 138-80               138                80           0.17167           -0.4162           -0.1716          -0.11188
Line_61                  Line 140-80               140                80            1.9472          -0.89964            -1.931          -0.55729
Line_62                   Line 99-44                99                44           -1.3334          -0.36879            1.3392          -0.62911
Line_63                  Line 109-40               109                40           -1.5953          -0.34359            1.5999          -0.22787
Line_64                  Line 63-139                63               139           -3.3344          -0.07926            3.3491          -0.33356
Line_65                    Line 14-6                14                 6           -2.4639           0.18127            2.5373           0.21362
Line_66                   Line 43-14                43                14          -0.67033          -0.23131           0.67274           0.18387
Line_67                    Line 33-6                33                 6            2.0287          0.047135           -2.0126         0.0091891
Line_68                    Line 24-9                24                 9           -1.2791           0.11476               1.3          -0.15697
Line_69                   Line 29-16                29                16          -0.41781         -0.048018           0.41986         -0.092196
Line_70                    Line 37-7                37                 7            2.7898           0.36505           -2.7301          -0.13087
Line_71                    Line 24-3                24                 3            1.4502           0.08778            -1.431         -0.085568
Line_72                   Line 37-27                37                27            2.9816            0.3608           -2.9387          -0.15112
Line_73                   Line 39-26                39                26            3.5216           0.34395            -3.462         -0.019939
Line_74                    Line 15-8                15                 8         -0.066613            -1.216          0.073801            1.1979
Line_75                   Line 46-14                46                14             -1.12          -0.41708            1.1212           0.41368
Line_76                   Line 31-15                31                15           0.36158          -0.12146          -0.36101          0.075861
Line_77                    Line 47-7                47                 7            -1.824          -0.25057            1.8388           0.28331
Line_78                    Line 26-6                26                 6            1.2897           0.39242           -1.2853          -0.39521
Line_79                    Line 37-1                37                 1           0.87069           0.27587          -0.86988          -0.28838
Line_80                    Line 39-2                39                 2           0.71308           0.16306          -0.71256          -0.17778
Line_81                   Line 38-32                38                32            3.2121            0.6256           -3.1773          -0.43045
Line_82                   Line 34-12                34                12           -1.1494          -0.61228            1.1532          -0.32573
Line_83                   Line 40-34                40                34            7.1338           0.50926           -6.9636           0.24227
Line_84                   Line 20-41                20                41           -5.6226         -0.036307            5.7261          0.061026
Line_85                   Line 11-22                11                22            2.2784          -0.28291           -2.2642          -0.48125
Line_86                   Line 11-20                11                20           -2.4706         -0.029507             2.477          -0.26501
Line_87                   Line 44-41                44                41           -3.6744           0.54402             3.684           -0.6991
Line_88                   Line 79-74                79                74          0.012316         -0.079465          -0.01231         -0.032702
Line_89                   Line 76-71                76                71          -0.29722          -0.21413           0.29806          0.095231
Line_90                   Line 83-49                83                49           0.35027          0.011681          -0.34906          -0.12472
Line_91                   Line 66-49                66                49          -0.11965          -0.27993           0.12022           0.15584
Line_92                   Line 74-57                74                57          -0.54211         -0.047814           0.54343         -0.023806
Line_93                   Line 75-59                75                59          -0.54229         -0.048058           0.54361         -0.023553
Line_94                   Line 75-49                75                49            0.4282          0.032051          -0.42717           -0.1118
Line_95                   Line 84-67                84                67            1.1746            -0.102            -1.171          0.090173
Line_96                   Line 67-53                67                53           0.68579        -0.0018289          -0.68295         -0.070771
Line_97                   Line 51-70                51                70           -1.0823         -0.082191            1.0855          0.052654
Line_98                   Line 52-50                52                50           0.60756           0.10646            -0.605          -0.19562
Line_99                   Line 71-52                71                52           0.67083         0.0052137          -0.66878         -0.069666
Line_100                  Line 83-51                83                51          -0.62645         -0.039485           0.62792          -0.01224
Line_101                  Line 83-82                83                82           0.27619          0.027804           -0.2761         -0.043354
Line_102                  Line 78-57                78                57          -0.44437         -0.087894           0.44539         0.0026118
Line_103                  Line 79-58                79                58          -0.44589         -0.086797           0.44692         0.0015604
Line_104                  Line 78-54                78                54          -0.74898          0.069191           0.75481          -0.15129
Line_105                  Line 77-55                77                55           -1.0551         -0.046819            1.0574          0.030011
Line_106                  Line 62-54                62                54           -1.0458          -0.22773            1.0482           0.21526
Line_107                  Line 65-61                65                61           -1.5097          -0.25937            1.5133          -0.28691
Line_108                  Line 73-69                73                69           0.53835           -0.4238          -0.53798          0.058591
Line_109                  Line 56-72                56                72           0.14348          -0.67834          -0.14325         -0.060101
Line_110                  Line 80-73                80                73           -2.1693           0.69713            2.1745          -0.95064
Line_111                  Line 64-81                64                81           -3.1715            -0.242            3.1825         -0.028635
Line_112                  Line 68-60                68                60           -1.0997           -0.4197            1.1018          -0.19074
Line_113                Line 113-144               113               144           -1.5581          -0.70836            1.5701            0.7197
Line_114                 Line 91-124                91               124           -0.2616         -0.012494           0.26222         -0.088064
Line_115                Line 124-111               124               111         -0.058213           0.24192          0.058321          -0.26853
Line_116                 Line 95-150                95               150           0.28821         -0.033188          -0.28808         0.0057742
Line_117                Line 150-102               150               102           0.29515          0.026218          -0.29498         -0.060022
Line_118                Line 123-150               123               150         0.0070722        -0.0074708        -0.0070718         -0.031992
Line_119                Line 151-149               151               149            1.6621            0.5267           -1.6604           -0.5233
Line_120                Line 123-151               123               151            1.0815           0.15926           -1.0762          -0.19287
Line_121                Line 108-151               108               151           0.58619           0.32531          -0.58588          -0.33383
Line_122                Line 117-137               117               137           -1.1175           0.20596            1.1351          -0.24881
Line_123                 Line 97-130                97               130           0.10738          0.074883          -0.10734          -0.10553
Line_124                Line 134-118               134               118            1.1665         -0.088612           -1.1468          0.019786
Line_125                 Line 145-90               145                90           0.62159          -0.11201          -0.61971          0.036145
Line_126                Line 125-107               125               107          -0.63019         -0.099805            0.6315          0.055096
Line_127                 Line 136-95               136                95           -1.3182          -0.19885            1.3303           0.18728
Line_128                 Line 137-94               137                94           -1.0906          -0.22067            1.0989           0.18997
Line_129                  Line 95-92                95                92            1.5763           0.80784           -1.5628          -0.77834
Line_130                  Line 94-89                94                89            1.3422            0.5098           -1.3386          -0.51367
Line_131                 Line 131-94               131                94          -0.86421          -0.43856           0.86774            0.4038
Line_132                 Line 120-88               120                88           -0.5707          -0.55097            0.5763           0.45126
Line_133                Line 127-135               127               135           -1.2133          -0.58686            1.2224           0.56179
Line_134                 Line 108-85               108                85            1.1286           0.41917           -1.1261          -0.42847
Line_135                Line 103-107               103               107          -0.95037          -0.33672           0.95151           0.32592
Line_136                Line 148-104               148               104          -0.49911          -0.26437           0.49926           0.25727
Line_137                 Line 152-92               152                92        7.1054e-15                 0        2.2336e-08         -0.011017
Line_138                 Line 153-93               153                93                 0       -2.8422e-14        2.2046e-08         -0.010943
Line_139                 Line 119-93               119                93          -0.76121           -1.2078           0.76405            1.2059
Line_140                Line 144-121               144               121           0.38847         -0.080325          -0.38808          0.035729
Line_141                Line 145-128               145               128           0.96162           0.57137          -0.95685          -0.60517
Line_142                Line 121-101               121               101           0.62123          0.068985          -0.62077         -0.086925
Line_143                Line 122-112               122               112          0.003666          0.099918        -0.0036151          -0.15505
Line_144                 Line 129-96               129                96            0.1851          -0.24856          -0.18458           0.17501
Line_145                 Line 106-94               106                94           0.12335          -0.21597          -0.12316           0.15763
Line_146                Line 135-125               135               125            1.1356           0.15808           -1.1292          -0.18374
Line_147                Line 126-116               126               116           -1.2233         -0.062172            1.2272          0.049266
Line_148                 Line 134-95               134                95           -1.7824          0.051291            1.7872         -0.046156
Line_149                Line 123-105               123               105           0.28601           0.60635          -0.28537          -0.62022
Line_150                 Line 115-95               115                95           -1.3408          -0.23182             1.346           0.22007
Line_151                 Line 135-94               135                94          -0.98156          0.026489             0.983         -0.044073
Line_152                Line 100-114               100               114           -1.2922          -0.36891            1.3012           0.35882
Line_153                Line 143-136               143               136          -0.92411          -0.55023           0.92861           0.53179
Line_154                Line 142-127               142               127          -0.42072          -0.15223           0.42109           0.12881
Line_155                 Line 117-87               117                87          0.081804        -0.0086709           -0.0818                 0
Line_156                 Line 118-86               118                86          0.093506        -0.0086384           -0.0935       -8.5265e-14
Line_157                Line 110-146               110               146             1.588          -0.38826           -1.5824          -0.38322
Line_158                 Line 99-147                99               147         -0.065052          0.071707          0.065443          -0.80678
Line_159                Line 140-132               140               132          -0.89971           0.78051           0.90111           -1.0815
Line_160                Line 141-139               141               139            2.8337           -0.5994            -2.811          -0.23106
Line_161                Line 132-147               132               147           -1.6844           0.16682            1.6869          -0.45547
Line_162                Line 202-181               202               181           -2.7255          -0.51546            2.8023            1.0502
Line_163                Line 203-180               203               180            -2.726          -0.51535            2.8029            1.0503
Line_164                Line 205-180               205               180           -1.3203          -0.39007             1.344           0.36554
Line_165                Line 206-181               206               181           -1.3213           -0.3896            1.3451           0.36525
Line_166                Line 158-206               158               206           -1.1044          -0.10124            1.1101          0.079384
Line_167                Line 158-168               158               168           0.71279         0.0056497          -0.71241          -0.01328
Line_168                Line 192-163               192               163            2.4901           0.55606           -2.4279           -0.2423
Line_169                Line 159-182               159               182           -1.8223          -0.44153            1.8401           0.49403
Line_170                Line 199-202               199               202           -1.3099           0.25848            1.3404            -0.234
Line_171                Line 176-203               176               203           -1.7492         -0.037248            1.7782           0.13537
Line_172                Line 179-181               179               181           -3.0106         -0.013738            3.1134           0.60025
Line_173                Line 156-160               156               160          -0.93667          -0.37585           0.94119           0.34129
Line_174                Line 172-166               172               166          -0.54937           0.46854           0.55456          -0.57303
Line_175                Line 178-209               178               209          0.057516           0.70524         -0.053526          -0.76733
Line_176                Line 178-208               178               208           -1.8399          -0.95513            1.8486           0.99148
Line_177                Line 199-170               199               170           -2.0188         -0.097804            2.0913           0.36431
Line_178                Line 204-198               204               198           -1.0389          -0.54954            1.0421           0.54754
Line_179                Line 198-163               198               163          -0.84175          -0.11569            0.8442          0.090782
Line_180                Line 199-194               199               194            1.2805          -0.13255             -1.26           0.13365
Line_181                Line 198-177               198               177          -0.63241           0.56393           0.63933          -0.61218
Line_182                Line 170-154               170               154           -2.8412           0.41329            2.8906          -0.21284
Line_183                Line 169-155               169               155             -3.35           0.32676            3.3924         -0.074943
Line_184                Line 191-170               191               170          -0.70153           0.74568           0.70207          -0.74902
Line_185                Line 192-169               192               169           -1.0397           0.70309            1.0405          -0.70486
Line_186                Line 179-166               179               166            2.0111          -0.50763           -1.9703           0.66992
Line_187                Line 185-172               185               172            -1.356          -0.55156            1.3645           0.55081
Line_188                Line 173-164               173               164              1.18           0.55476           -1.1719          -0.58083
Line_189                Line 196-164               196               164          -0.24103         -0.056867           0.24109          0.042665
Line_190                Line 197-185               197               185           -0.0303          -0.13407          0.030347          0.026137
Line_191                Line 206-157               206               157           0.56576         -0.074217          -0.56513          0.050104
Line_192                Line 207-205               207               205           0.82052          -0.36338          -0.81684           0.32239
Line_193                Line 210-202               210               202           -1.3506          -0.36009            1.3552           0.36618
Line_194                Line 183-161               183               161            2.7737           0.46236           -2.7527          -0.99971
Line_195                Line 189-162               189               162           0.97469          -0.43256          -0.97307         -0.025004
Line_196                Line 187-190               187               190           -2.2874          -0.76456            2.2948            0.4201
Line_197                Line 200-175               200               175          -0.43021           -1.7866           0.43674            0.6705
Line_198                Line 218-225               218               225          -0.79411          -0.11199            0.8106          -0.01799
Line_199                Line 232-238               232               238          -0.46408          0.088464           0.47067          -0.33347
Line_200                Line 219-243               219               243         0.0033654          -0.49812       -0.00028949           0.33376
...

OTHER ALGEBRAIC VARIABLES:
                                    

q PV 1                       0.84051
q PV 2                       -0.1933
q PV 5                       0.17391
q PV 6                       0.17391
q PV 7                       0.97905
q PV 8                        0.6768
q PV 9                        0.6768
q PV 10                       0.6768
q PV 11                     -0.13881
q PV 12                     -0.13881
q PV 13                     -0.13881
q PV 14                       0.4135
q PV 15                       0.4135
q PV 16                      0.86332
q PV 17                            0
q PV 18                      0.86332
q PV 19                      0.32283
q PV 20                       1.8038
q PV 21                      0.37394
q PV 22                    -0.066929
q PV 23                      0.56807
q PV 24                            0
q PV 25                            0
q PV 26                     0.056871
q PV 27                     -0.17405
q PV 28                     -0.18405
q PV 29                      0.60689
q PV 30                      0.96021
q PV 31                      0.96021
q PV 32                      0.72358
q PV 33                      0.72358
q PV 34                      0.72358
q PV 35                      0.38037
q PV 36                      0.23636
q PV 37                     0.001403
q PV 38                     0.001403
q PV 39                            0
q PV 40                      0.61918
q PV 41                      0.68459
q PV 42                      0.14775
q PV 43                            0
q PV 44                      0.80636
q PV 45                      0.31744
q PV 46                      0.43511
q PV 47                      0.42403
q PV 48                      0.44433
q PV 49                     -0.35059
q PV 50                     -0.35059
q PV 51                            0
q PV 52                            0
q PV 53                            0
q PV 54                            0
q PV 55                      0.87729
q PV 56                      0.89501
q PV 57                            0
q PV 58                            0
q PV 59                            0
q PV 60                            0
q PV 61                       1.1941
q PV 62                            0
q PV 63                            0
q PV 64                            0
q PV 65                     -0.18704
q PV 66                      0.65097
q PV 67                      0.59127
q PV 68                      0.99078
q PV 69                      0.99078
q PV 70                        1.041
q PV 71                        1.281
q PV 72                      0.10688
q PV 73                      0.10688
q PV 74                       1.0339
q PV 75                       1.0339
q PV 76                       1.0764
q PV 77                        1.072
q PV 78                            0
q PV 79                            0
q PV 80                       2.9427
q PV 81                       1.0066
q PV 82                     -0.60525
q PV 83                     -0.60525
q PV 84                            0
q PV 85                     -0.20003
q PV 86                      0.10137
q PV 87                      0.20384
q PV 88                      0.20384
q PV 89                      0.20384
q PV 90                      0.20384
q PV 91                     0.010027
q PV 92                     0.010785
q PV 93                            0
q PV 94                            0
q PV 95                     0.038844
q PV 96                     0.038844
q PV 97                     0.038844
q PV 98                     0.038844
q PV 99                       1.9027
q PV 100                           0
q PV 101                           0
q PV 102                    0.053193
q PV 103                    0.011073
q PV 104                    0.011073
q PV 105                    0.011073
q PV 106                    0.071808
q PV 107                    0.071808
q PV 108                    0.061808
q PV 109                     0.15448
q PV 110                     0.15448
q PV 111                    0.064614
q PV 112                    0.064614
q PV 113                     0.20438
q PV 114                     0.20438
q PV 115                     0.40588
q PV 116                    0.033009
q PV 117                    0.010277
q PV 118                    0.087409
q PV 119                    0.085674
q PV 120                     0.15285
q PV 121                     0.17815
q PV 122                    0.087647
q PV 123                    0.087647
q PV 124                     0.73641
q PV 125                    0.063306
q PV 126                     0.12384
q PV 127                    0.023325
q PV 128                    0.011057
q PV 129                    0.046772
q PV 130                    0.032157
q PV 131                    0.047282
q PV 132                    0.047282
q PV 133                    0.047282
q PV 134                    0.021353
q PV 135                           0
q PV 136                    0.008392
q PV 137                           0
q PV 138                    0.041978
q PV 139                     0.16839
q PV 140                     0.12029
q PV 141                     0.35099
q PV 142                     0.35099
q PV 143                     0.12088
q PV 144                     0.12088
q PV 145                     0.12948
q PV 146                     0.36048
q PV 147                     0.36048
q PV 148                     0.01143
q PV 149                    0.012211
q PV 150                     0.18338
q PV 151                     0.30338
q PV 152                     0.18476
q PV 153                     0.18476
q PV 154                     0.18476
q PV 155                     0.65476
q PV 156                     0.18168
q PV 157                     0.18168
q PV 158                     0.14168
q PV 159                    0.040749
q PV 160                    0.020749
q PV 161                    0.004583
q PV 162                    0.002209
q PV 163                    0.001468
q PV 164                     0.14858
q PV 165                     0.14858
q PV 166                           0
q PV 167                    0.000163
q PV 168                    0.000874
q PV 169                     0.38186
q PV 170                     0.77422
q PV 171                    0.000768
q PV 172                    0.002599
q PV 173                     0.30162
q PV 174                     0.30162
q PV 175                    0.002169
q PV 176                    0.001711
q PV 177                           0
q PV 178                     0.00179
q PV 179                    0.002325
q PV 180                           0
q PV 181                           0
q PV 182                     0.28925
q PV 183                     0.15979
q PV 184                           0
q PV 185                     0.25734
q PV 186                           0
q PV 187                     0.19777
q PV 188                           0
q PV 189                    0.001509
q PV 190                    0.000487
q PV 191                    0.097438
q PV 192                           0
q PV 193                           0
q PV 194                           0
q PV 195                           0
q PV 196                     0.41217
q PV 197                     0.55039
q PV 198                           0
q PV 199                     0.00075
q PV 200                    0.005816
q PV 201                           0
q PV 202                    0.001409
...
p Slack 3                     4.3502
p Slack 4                     4.3502

